cases/transmission/generated_cases/hourly_case_21.m
%% MATPOWER Case Format : Version 2
function mpc = case2383wp
mpc.version = '2';

%%-----  Power Flow Data  -----%%
%% system MVA base
mpc.baseMVA = 100;
%% bus data
%    bus_i    type    Pd    Qd    Gs    Bs    area    Vm    Va    baseKV    zone    Vmax    Vmin
mpc.bus = [
	1	1	0.0	0.0	0.0	0.0	1	1.0866168571690473	1.8906638125007165	220.0	1	1.11	0.95				
	2	1	0.0	0.0	0.0	0.0	1	1.07927327830095	2.6565966862082533	220.0	1	1.11	0.95				
	3	1	0.0	0.0	0.0	0.0	1	1.0666362622885566	-15.763152462872839	220.0	1	1.11	0.95				
	4	1	0.0	0.0	0.0	0.0	1	1.0683024636333625	-3.5339885301804297	220.0	1	1.11	0.95				
	5	1	0.0	0.0	0.0	0.0	1	1.0553348010863661	-10.769903344263442	220.0	1	1.11	0.95				
	6	1	0.0	0.0	0.0	0.0	1	1.017351474137221	-6.498829902628298	400.0	1	1.05	0.95				
	7	1	0.0	0.0	0.0	0.0	1	1.0478125897225699	-12.46771457962157	220.0	1	1.11	0.95				
	8	1	0.0	0.0	0.0	0.0	1	1.0229482217133254	-4.9059671838598655	400.0	1	1.05	0.95				
	9	1	0.0	0.0	0.0	0.0	1	1.0286053341785326	-8.809458442028818	400.0	1	1.05	0.95				
	10	2	9.784	7.199999999999999	0.0	0.0	1	1.0858257906010476	-11.195961320933225	220.0	1	1.11	0.95				
	11	1	0.0	0.0	0.0	0.0	1	1.073327579078777	-2.4990061885829142	220.0	1	1.11	0.95				
	12	1	0.0	0.0	0.0	0.0	1	1.056732913807644	-14.848116796246822	220.0	1	1.11	0.95				
	13	1	0.0	0.0	0.0	0.0	1	1.0497020476119925	-12.390473958035095	220.0	1	1.11	0.95				
	14	1	0.0	0.0	0.0	0.0	1	1.0630565644620693	-0.6518248945008215	220.0	1	1.11	0.95				
	15	1	0.0	0.0	0.0	0.0	1	1.0144118417919974	-8.853017444705785	400.0	1	1.05	0.95				
	16	2	43.90400000000001	80.0	0.0	0.0	1	1.0881687975927163	2.2910565852639886	220.0	1	1.11	0.95				
	17	2	61.60000000000001	120.00000000000001	0.0	0.0	1	1.0830770213911542	3.3411124300382955	220.0	1	1.11	0.95				
	18	3	122.40000000000002	280.0	0.0	0.0	1	1.0168935869865288	1.5800619959979584e-27	400.0	1	1.05	0.95				
	19	1	0.0	0.0	0.0	0.0	1	1.0564578665371513	-13.804275185364412	220.0	1	1.11	0.95				
	20	1	0.0	0.0	0.0	0.0	1	1.0231230663842434	-0.8969115655745181	400.0	1	1.05	0.95				
	21	1	0.0	0.0	0.0	0.0	1	1.0484175877393047	-12.781895569396939	220.0	1	1.11	0.95				
	22	1	0.0	0.0	0.0	0.0	1	1.0732634947484616	-7.218457483719242	220.0	1	1.11	0.95				
	23	1	0.0	0.0	0.0	0.0	1	1.04088770639431	-7.694636309461108	220.0	2	1.11	0.95				
	24	1	0.0	0.0	0.0	0.0	1	1.0526070656671758	-3.7543656330787485	220.0	2	1.11	0.95				
	25	1	0.0	0.0	0.0	0.0	1	1.0513281627209685	-2.5138161390707006	220.0	2	1.11	0.95				
	26	1	0.0	0.0	0.0	0.0	1	1.0365329499721188	-9.477331607218376	220.0	2	1.11	0.95				
	27	1	0.0	0.0	0.0	0.0	1	1.054323790007632	-2.7215767876499264	220.0	2	1.11	0.95				
	28	1	0.0	0.0	0.0	0.0	1	1.0543159813473149	-2.7156952053447663	220.0	2	1.11	0.95				
	29	2	20.784000000000002	48.0	0.0	0.0	1	1.0486414642647326	-7.397614888845981	220.0	2	1.11	0.95				
	30	2	20.784000000000002	48.0	0.0	0.0	1	1.0485726891633618	-7.399846647456359	220.0	2	1.11	0.95				
	31	2	16.784000000000002	40.0	0.0	0.0	1	1.0048402130966987	-2.6881460797609287	400.0	2	1.05	0.95				
	32	1	0.0	0.0	0.0	0.0	1	1.0047119614630187	-2.72471551268603	400.0	2	1.05	0.95				
	33	1	0.0	0.0	0.0	0.0	1	1.0499291174845802	-3.3484670555758633	220.0	2	1.11	0.95				
	34	1	0.0	0.0	0.0	0.0	1	1.0434254870082715	-2.318174322044479	400.0	2	1.05	0.95				
	35	1	0.0	0.0	0.0	0.0	1	1.043457598048047	-2.3241132231933745	400.0	2	1.05	0.95				
	36	1	0.0	0.0	0.0	0.0	1	0.9895007439136643	-5.468061249151138	400.0	2	1.05	0.95				
	37	1	0.0	0.0	0.0	0.0	1	1.0434229804521389	-7.7601515196016155	220.0	2	1.11	0.95				
	38	1	0.0	0.0	0.0	0.0	1	1.0434224906275105	-7.758155681210404	220.0	2	1.11	0.95				
	39	1	0.0	0.0	0.0	0.0	1	1.0084353957433658	-1.4698935300945444	400.0	2	1.05	0.95				
	40	1	0.0	0.0	0.0	0.0	1	1.008448203312252	-1.46058043658882	400.0	2	1.05	0.95				
	41	2	9.592	24.0	0.0	0.0	1	1.056196503681309	-0.7135178002226719	220.0	2	1.11	0.95				
	42	2	9.592	24.0	0.0	0.0	1	1.056167350808453	-0.7283478016784521	220.0	2	1.11	0.95				
	43	2	19.184	48.0	0.0	0.0	1	1.0199459877932187	0.7892301000394931	400.0	2	1.05	0.95				
	44	2	19.184	48.0	0.0	0.0	1	1.0199621478632857	0.7778783874498729	400.0	2	1.05	0.95				
	45	2	127.87200000000001	60.00000000000001	0.0	0.0	1	1.0395462874104753	-7.921683639125121	220.0	2	1.11	0.95				
	46	1	0.0	0.0	0.0	0.0	1	1.0395735131890662	-7.919765099903493	220.0	2	1.11	0.95				
	47	1	0.0	0.0	0.0	0.0	1	1.051338387284609	-3.1374378373134233	220.0	2	1.11	0.95				
	48	1	0.0	0.0	0.0	0.0	1	1.0438477372917756	-7.2275680510898805	220.0	2	1.11	0.95				
	49	1	0.0	0.0	0.0	0.0	1	1.0438519288667025	-7.231700060095278	220.0	2	1.11	0.95				
	50	1	0.0	0.0	0.0	0.0	1	1.0288632854440924	-0.9296187080736118	400.0	2	1.05	0.95				
	51	1	0.0	0.0	0.0	0.0	1	1.0289609073657737	-0.9442042573978734	400.0	2	1.05	0.95				
	52	1	0.0	0.0	0.0	0.0	1	1.0444566179938597	-4.535204585892703	220.0	2	1.11	0.95				
	53	1	0.0	0.0	0.0	0.0	1	1.0459100608731946	-4.46219714146039	220.0	2	1.11	0.95				
	54	1	0.0	0.0	0.0	0.0	1	1.0516555035428596	-2.4545036744201325	220.0	2	1.11	0.95				
	55	1	0.0	0.0	0.0	0.0	1	1.0466239917571065	-6.655212456031437	220.0	2	1.11	0.95				
	56	1	0.0	0.0	0.0	0.0	1	1.0716379872472719	0.5862754009092532	220.0	3	1.11	0.95				
	57	1	18.384	8.768	0.0	0.0	1	1.0780014988869056	1.1888764096977469	220.0	3	1.11	0.95				
	58	1	17.584	4.632	0.0	0.0	1	1.0781762534714703	1.188338496549207	220.0	3	1.11	0.95				
	59	1	0.0	0.0	0.0	0.0	1	1.10236041394269	8.83969978667019	220.0	3	1.11	0.95				
	60	1	0.0	0.0	0.0	0.0	1	1.0966919930688315	2.352401848132224	220.0	3	1.11	0.95				
	61	1	0.0	0.0	0.0	0.0	1	1.1079037326815957	10.578363016944879	220.0	3	1.11	0.95				
	62	1	0.0	0.0	0.0	0.0	1	1.1078919228932396	10.580987263029765	220.0	3	1.11	0.95				
	63	2	29.896	42.151999999999994	0.0	0.0	1	1.1051327785952392	8.963987178452665	220.0	3	1.11	0.95				
	64	2	28.296	44.25600000000001	0.0	0.0	1	1.1027183276881194	8.61174171539601	220.0	3	1.11	0.95				
	65	1	10.712000000000002	1.616	0.0	0.0	1	1.0975432832204965	6.680905551092183	220.0	3	1.11	0.95				
	66	1	0.0	0.0	0.0	0.0	1	1.0912915334276219	-4.190526359049122	220.0	3	1.11	0.95				
	67	2	48.32	73.68	0.0	0.0	1	1.0385710357366056	-2.7435829167976027	400.0	3	1.05	0.95				
	68	1	0.0	0.0	0.0	0.0	1	1.093509824371354	-2.091805766298803	220.0	3	1.11	0.95				
	69	1	0.0	0.0	0.0	0.0	1	1.0978325346189353	6.271568622719757	220.0	3	1.11	0.95				
	70	1	0.0	0.0	0.0	0.0	1	1.0754694318597255	1.5003223597053346	220.0	3	1.11	0.95				
	71	1	0.0	0.0	0.0	0.0	1	1.0917051717109405	5.553976741996988	220.0	3	1.11	0.95				
	72	1	0.0	0.0	0.0	0.0	1	1.0917051717109405	5.553976741996988	220.0	3	1.11	0.95				
	73	1	0.0	0.0	0.0	0.0	1	1.0774299882892202	2.0555948113289744	220.0	3	1.11	0.95				
	74	1	0.0	0.0	0.0	0.0	1	1.0752819297754406	1.179056156591598	220.0	3	1.11	0.95				
	75	1	0.0	0.0	0.0	0.0	1	1.0186530727954868	-0.004156876557008077	400.0	3	1.05	0.95				
	76	1	0.0	0.0	0.0	0.0	1	1.018618394241715	-0.005633548498786759	400.0	3	1.05	0.95				
	77	1	0.0	0.0	0.0	0.0	1	1.0906632429249823	4.85310962108179	220.0	3	1.11	0.95				
	78	1	0.0	0.0	0.0	0.0	1	1.0881488423539518	0.7096839048881589	220.0	3	1.11	0.95				
	79	1	0.0	0.0	0.0	0.0	1	1.090697048484878	6.250177821569245	220.0	3	1.11	0.95				
	80	1	0.0	0.0	0.0	0.0	1	1.0785055742707825	1.229591137948888	220.0	3	1.11	0.95				
	81	1	0.0	0.0	0.0	0.0	1	1.0785273443129741	1.2303985578504026	220.0	3	1.11	0.95				
	82	1	0.0	0.0	0.0	0.0	1	1.103436798917579	9.606365011157072	220.0	3	1.11	0.95				
	83	2	12.792	18.376	0.0	0.0	1	1.0994960324011651	6.137015934595597	220.0	3	1.11	0.95				
	84	2	12.631999999999998	17.816000000000003	0.0	0.0	1	1.0993913694521773	6.139787886399903	220.0	3	1.11	0.95				
	85	2	7.992000000000001	13.608000000000004	0.0	0.0	1	1.0932231971075153	4.700139552559282	220.0	3	1.11	0.95				
	86	2	7.992000000000001	13.328000000000001	0.0	0.0	1	1.0931258168519493	4.702349701369516	220.0	3	1.11	0.95				
	87	1	8.872	12.975999999999999	0.0	0.0	1	1.0804687415278291	3.9441695557260514	220.0	3	1.11	0.95				
	88	1	0.0	0.0	0.0	0.0	1	1.080478670630658	3.9461583359795966	220.0	3	1.11	0.95				
	89	1	0.0	0.0	0.0	0.0	1	1.097343698846723	7.775740601631762	220.0	3	1.11	0.95				
	90	1	0.0	0.0	0.0	0.0	1	1.094369508337356	4.983421667141991	220.0	3	1.11	0.95				
	91	1	0.0	0.0	0.0	0.0	1	1.0982500098384727	7.349031733992512	220.0	3	1.11	0.95				
	92	1	0.0	0.0	0.0	0.0	1	1.0128980542016242	-0.15515840973845338	400.0	3	1.05	0.95				
	93	2	7.992000000000001	13.112000000000002	0.0	0.0	1	1.098509234985319	7.786725576657635	220.0	3	1.11	0.95				
	94	1	0.0	0.0	0.0	0.0	1	1.098515706155932	7.78532382437995	220.0	3	1.11	0.95				
	95	2	5.5120000000000005	6.5200000000000005	0.0	0.0	1	1.1045266421366855	8.253148801663194	220.0	3	1.11	0.95				
	96	1	0.0	0.0	0.0	0.0	1	1.104524326534781	8.248899106068079	220.0	3	1.11	0.95				
	97	2	6.952	4.208	0.0	0.0	1	1.099073090598622	5.174869331707769	220.0	3	1.11	0.95				
	98	1	0.0	0.0	0.0	0.0	1	1.020670220655834	-0.256245962632285	400.0	3	1.05	0.95				
	99	1	0.0	0.0	0.0	0.0	1	1.0207405886457355	-0.25049368699223185	400.0	3	1.05	0.95				
	100	1	0.0	0.0	0.0	0.0	1	1.0233775131741265	-0.04727829347198121	400.0	3	1.05	0.95				
	101	1	0.0	0.0	0.0	0.0	1	1.0234191329933493	-0.048144790097305566	400.0	3	1.05	0.95				
	102	1	0.0	0.0	0.0	0.0	1	1.0997539217146932	7.934158794417596	220.0	3	1.11	0.95				
	103	2	14.472000000000001	19.008000000000003	0.0	0.0	1	1.0936593855383416	3.9758642460082694	220.0	3	1.11	0.95				
	104	2	26.944000000000003	36.888000000000005	0.0	0.0	1	1.0936133457058028	3.987196665187092	220.0	3	1.11	0.95				
	105	2	27.023999999999997	50.36000000000001	0.0	0.0	1	1.0008859492418352	0.267356084989419	400.0	3	1.05	0.95				
	106	1	0.0	0.0	0.0	0.0	1	1.0010379568600931	0.26166432142529167	400.0	3	1.05	0.95				
	107	1	0.0	0.0	0.0	0.0	1	1.074611086458363	1.2639482996003	220.0	3	1.11	0.95				
	108	1	0.0	0.0	0.0	0.0	1	1.0760442229445253	1.4297352714851035	220.0	3	1.11	0.95				
	109	2	0.8	17.888	0.0	0.0	1	1.110000010094401	11.296010065809655	220.0	3	1.11	0.95				
	110	2	0.8	17.744	0.0	0.0	1	1.1100000100417478	11.298560324229735	220.0	3	1.11	0.95				
	111	2	21.192	14.399999999999999	0.0	0.0	1	1.0882674489955912	-9.65462851086407	220.0	4	1.11	0.95				
	112	1	0.0	0.0	0.0	0.0	1	1.0881803441598814	-9.646314897415245	220.0	4	1.11	0.95				
	113	1	0.0	0.0	0.0	0.0	1	1.0514323384307125	-21.381945260143148	220.0	4	1.11	0.95				
	114	1	0.0	0.0	0.0	0.0	1	1.0594020755403326	-21.310402834297363	220.0	4	1.11	0.95				
	115	1	0.0	0.0	0.0	0.0	1	0.9752210477105844	-16.45841940366017	400.0	4	1.05	0.95				
	116	1	0.0	0.0	0.0	0.0	1	0.9752391656520286	-16.44185567426134	400.0	4	1.05	0.95				
	117	1	0.0	0.0	0.0	0.0	1	1.0797673784509607	-20.06520931590279	220.0	4	1.11	0.95				
	118	1	0.0	0.0	0.0	0.0	1	1.0331697920600227	-23.45655541016215	220.0	4	1.11	0.95				
	119	1	0.0	0.0	0.0	0.0	1	1.0331697920600227	-23.45655541016215	220.0	4	1.11	0.95				
	120	1	0.0	0.0	0.0	0.0	1	1.0356921387159452	-24.507885280567738	220.0	4	1.11	0.95				
	121	1	0.0	0.0	0.0	0.0	1	1.0628906432112875	-20.687901249434596	220.0	4	1.11	0.95				
	122	1	0.0	0.0	0.0	0.0	1	1.0628906432112875	-20.687901249434596	220.0	4	1.11	0.95				
	123	2	4.4	5.6000000000000005	0.0	0.0	1	1.0939340756379587	-12.706075658292303	220.0	4	1.11	0.95				
	124	2	7.031999999999999	13.600000000000001	0.0	0.0	1	1.093910957906653	-12.701382602829339	220.0	4	1.11	0.95				
	125	2	28.560000000000002	14.64	0.0	0.0	1	1.0585448354233256	-20.867218188623845	220.0	4	1.11	0.95				
	126	1	20.224000000000004	12.72	0.0	0.0	1	1.0584790286886507	-20.855155508004568	220.0	4	1.11	0.95				
	127	2	20.568	12.24	0.0	0.0	1	1.013944745413546	-14.0398678908507	400.0	4	1.05	0.95				
	128	1	0.0	0.0	0.0	0.0	1	1.0139233313778873	-14.052460680289993	400.0	4	1.05	0.95				
	129	1	0.0	0.0	0.0	0.0	1	1.0536001789326848	-23.0993783068562	220.0	4	1.11	0.95				
	130	1	0.0	0.0	0.0	0.0	1	1.0328324239369966	-24.656820193114335	220.0	4	1.11	0.95				
	131	2	54.93599999999999	55.99999999999999	0.0	0.0	1	1.0721861379665423	-20.022571837456272	220.0	4	1.11	0.95				
	132	2	26.400000000000002	36.00000000000001	0.0	0.0	1	1.0722735779131862	-20.02250667242256	220.0	4	1.11	0.95				
	133	1	0.0	0.0	0.0	0.0	1	0.971305925580522	-18.68543014057149	400.0	4	1.05	0.95				
	134	1	0.0	0.0	0.0	0.0	1	0.9712903243544768	-18.68950042737084	400.0	4	1.05	0.95				
	135	1	0.0	0.0	0.0	0.0	1	1.0335330523336745	-23.466797865340215	220.0	4	1.11	0.95				
	136	1	0.0	0.0	0.0	0.0	1	1.0335330523336745	-23.466797865340215	220.0	4	1.11	0.95				
	137	1	0.0	0.0	0.0	0.0	1	0.9948698746560026	-12.215309848436238	400.0	4	1.05	0.95				
	138	1	0.0	0.0	0.0	0.0	1	0.9948698746560026	-12.215309848436238	400.0	4	1.05	0.95				
	139	2	26.56	18.080000000000002	0.0	0.0	1	1.0941957595941534	-12.921605664174756	220.0	4	1.11	0.95				
	140	2	23.384	15.680000000000001	0.0	0.0	1	1.0942506967727639	-12.918099632544111	220.0	4	1.11	0.95				
	141	1	0.0	0.0	0.0	0.0	1	1.064054621447887	-22.808347053241306	220.0	4	1.11	0.95				
	142	1	0.0	0.0	0.0	0.0	1	1.0309087037845224	-23.62846877831641	220.0	4	1.11	0.95				
	143	1	0.0	0.0	0.0	0.0	1	1.0787339526649586	-21.073009951149544	220.0	4	1.11	0.95				
	144	1	0.0	0.0	0.0	0.0	1	1.0786677710694197	-21.074017745482575	220.0	4	1.11	0.95				
	145	1	0.0	0.0	0.0	0.0	1	0.9748554059818483	-19.549124814024044	400.0	4	1.05	0.95				
	146	1	0.0	0.0	0.0	0.0	1	0.9748554059818483	-19.549124814024044	400.0	4	1.05	0.95				
	147	1	0.0	0.0	0.0	0.0	1	1.0456991103181212	-23.042640039290838	220.0	4	1.11	0.95				
	148	1	0.0	0.0	0.0	0.0	1	1.0457436517169367	-23.039285720583543	220.0	4	1.11	0.95				
	149	1	0.0	0.0	0.0	0.0	1	1.076275402663379	-21.577829503619533	220.0	4	1.11	0.95				
	150	1	0.0	0.0	0.0	0.0	1	1.0543991030581512	-20.59114591985603	220.0	4	1.11	0.95				
	151	1	0.0	0.0	0.0	0.0	1	1.0544284512818336	-20.59775135655682	220.0	4	1.11	0.95				
	152	1	0.0	0.0	0.0	0.0	1	1.0520995233688137	-17.024878001603206	220.0	4	1.11	0.95				
	153	1	0.0	0.0	0.0	0.0	1	1.0520995233688137	-17.024878001603206	220.0	4	1.11	0.95				
	154	1	0.0	0.0	0.0	0.0	1	1.032228215178564	-24.192029476818256	220.0	4	1.11	0.95				
	155	1	0.0	0.0	0.0	0.0	1	1.0715367171236894	-16.5552151659894	220.0	5	1.11	0.95				
	156	1	0.0	0.0	0.0	0.0	1	1.1100000109976074	-16.706406656109596	220.0	5	1.11	0.95				
	157	1	0.0	0.0	0.0	0.0	1	1.0187893890447641	-14.9268992715488	400.0	5	1.05	0.95				
	158	1	0.0	0.0	0.0	0.0	1	1.0187812344671798	-14.922222609573348	400.0	5	1.05	0.95				
	159	1	0.0	0.0	0.0	0.0	1	1.0268090318385779	-13.232251935721104	400.0	5	1.05	0.95				
	160	1	0.0	0.0	0.0	0.0	1	1.026849497329657	-13.234216042454815	400.0	5	1.05	0.95				
	161	1	0.0	0.0	0.0	0.0	1	1.0684569048466435	-17.87239289419103	220.0	5	1.11	0.95				
	162	1	0.0	0.0	0.0	0.0	1	1.0684599867715172	-17.87286661682863	220.0	5	1.11	0.95				
	163	1	0.0	0.0	0.0	0.0	1	1.101560333601222	-15.055416763502118	220.0	5	1.11	0.95				
	164	1	0.0	0.0	0.0	0.0	1	1.1015528817112785	-15.06080590019314	220.0	5	1.11	0.95				
	165	1	0.0	0.0	0.0	0.0	1	1.008134628179883	-13.80554073960269	400.0	5	1.05	0.95				
	166	1	0.0	0.0	0.0	0.0	1	1.0815913957292906	-16.045310802480977	220.0	5	1.11	0.95				
	167	1	0.0	0.0	0.0	0.0	1	1.0816244523534857	-16.04247369379514	220.0	5	1.11	0.95				
	168	1	0.0	0.0	0.0	0.0	1	1.0312803069707326	-14.858474780388763	400.0	5	1.05	0.95				
	169	1	0.0	0.0	0.0	0.0	1	1.0312757246193616	-14.864870108179518	400.0	5	1.05	0.95				
	170	1	0.0	0.0	0.0	0.0	1	1.0588407318792967	-16.617577693964225	220.0	5	1.11	0.95				
	171	1	0.0	0.0	0.0	0.0	1	1.0588585107393378	-16.615013330611863	220.0	5	1.11	0.95				
	172	1	0.0	0.0	0.0	0.0	1	1.0790188924221085	-16.728707785055704	220.0	5	1.11	0.95				
	173	1	0.0	0.0	0.0	0.0	1	1.0789865994159489	-16.730056199150827	220.0	5	1.11	0.95				
	174	1	0.0	0.0	0.0	0.0	1	1.0712786400699563	-16.35212649921203	220.0	5	1.11	0.95				
	175	1	0.0	0.0	0.0	0.0	1	1.0712764314758572	-16.354934230047977	220.0	5	1.11	0.95				
	176	2	0.0	32.00000000000001	0.0	0.0	1	1.0231259672785828	-11.473062047903015	400.0	5	1.05	0.95				
	177	2	0.0	32.00000000000001	0.0	0.0	1	1.0232080007071156	-11.4732036340532	400.0	5	1.05	0.95				
	178	1	0.0	0.0	0.0	0.0	1	1.0862604010203734	-18.666932982319057	220.0	5	1.11	0.95				
	179	1	0.0	0.0	0.0	0.0	1	1.0862830253046436	-18.662024293393653	220.0	5	1.11	0.95				
	180	2	271.88000000000005	39.68000000000001	0.0	0.0	2	0.9857335224557993	-1.9972593475875298	400.0	6	1.05	0.95				
	181	2	0.0	0.0	0.0	0.0	3	1.0748788791190207	0.6829421097074949	220.0	6	1.11	0.95				
	182	2	0.0	0.0	0.0	0.0	5	0.972270690078282	-18.37476524305086	400.0	6	1.05	0.95				
	183	1	120.00000000000001	0.0	0.0	0.0	3	1.050000010489898	-3.0736249887996543	400.0	6	1.05	0.95				
	184	2	253.87199999999996	40.24	0.0	0.0	2	1.094291415448487	4.0247597546985725	220.0	6	1.11	0.95				
	185	2	289.944	29.360000000000003	0.0	0.0	2	0.9852916304908317	-2.650394095295042	400.0	6	1.05	0.95				
	186	2	26.663999999999998	0.8	0.0	0.0	5	1.0583569566244768	-20.96997728036146	220.0	6	1.11	0.95				
	187	1	5.696000000000001	1.2	0.0	0.0	1	1.0613744947440196	-15.904167207418485	110.0	1	1.12	0.95				
	188	1	6.104	0.8	0.0	0.0	1	1.0465599784020907	-20.574181593357096	110.0	1	1.12	0.95				
	189	1	7.816000000000001	6.959999999999999	0.0	0.0	1	1.0116529495681394	-18.678697076167452	110.0	1	1.12	0.95				
	190	1	4.896000000000001	1.2	0.0	0.0	1	1.1027171678930714	-1.3296986694210768	110.0	1	1.12	0.95				
	191	1	4.896000000000001	1.28	0.0	0.0	1	1.0875349039843547	-1.9436184431298722	110.0	1	1.12	0.95				
	192	2	24.448	9.6	0.0	0.0	1	1.1049903117368924	-12.479565296767843	110.0	1	1.12	0.95				
	193	1	12.224	2.4	0.0	0.0	1	1.1046719527293705	-12.455410961860286	110.0	1	1.12	0.95				
	194	1	0.0	0.0	0.0	0.0	1	1.1042189299149303	-12.672870619885904	110.0	1	1.12	0.95				
	195	1	6.512	1.6	0.0	0.0	1	1.074816295918552	-16.148386055711516	110.0	1	1.12	0.95				
	196	2	5.536	1.2	0.0	0.0	1	1.0397742697725043	-24.683381154679235	110.0	1	1.12	0.95				
	197	1	5.536	1.2	0.0	0.0	1	1.0819193468582007	-9.057725764021393	110.0	1	1.12	0.95				
	198	2	9.856000000000002	1.36	0.0	0.0	1	1.06875872755298	-16.631625196733342	110.0	1	1.12	0.95				
	199	1	1.1440000000000001	0.4	0.0	0.0	1	1.1107236644146388	-3.3135318252856667	110.0	1	1.12	0.95				
	200	1	0.864	0.4	0.0	0.0	1	1.1038409601630046	-15.971634868150122	110.0	1	1.12	0.95				
...
];

%% generator data
%    bus    Pg    Qg    Qmax    Qmin    Vg    mBase    status    Pmax    Pmin    Pc1    Pc2    Qc1min    Qc1max    Qc2min    Qc2max    ramp_agc    ramp_10    ramp_30    ramp_q    apf
mpc.gen = [
	10	400.00000397498735	45.629126291550406	120.0	0.0	1.0	168.0	1	400.0	0.0	0.0	0.0	0.0	0.0	0.0	0.0	0.0	0.0	0.0	0.0	0.0				
	16	720.0000071945788	156.28666333250888	440.00000000000006	-40.0	1.0	823.0	1	720.0	0.0	0.0	0.0	0.0	0.0	0.0	0.0	0.0	0.0	0.0	0.0	0.0				
	17	1080.0000107851884	197.54565960322805	660.0	-60.0	1.0	1234.0	1	1080.0	0.0	0.0	0.0	0.0	0.0	0.0	0.0	0.0	0.0	0.0	0.0	0.0				
	18	519.90123352154	-139.99999917540055	1540.0	-140.0	1.0	2879.0	1	2520.0	0.0	0.0	0.0	0.0	0.0	0.0	0.0	0.0	0.0	0.0	0.0	0.0				
	29	-9.830132016929867e-7	1.7163599165597796e-6	240.0	0.0	1.0	511.0	1	400.0	0.0	0.0	0.0	0.0	0.0	0.0	0.0	0.0	0.0	0.0	0.0	0.0				
	30	-9.868655422210101e-7	1.7066687236230703e-6	240.0	0.0	1.0	511.0	1	800.0	0.0	0.0	0.0	0.0	0.0	0.0	0.0	0.0	0.0	0.0	0.0	0.0				
	31	1000.0000099929392	-5.356342772123164e-7	350.0	0.0	1.0	420.0	1	1000.0	0.0	0.0	0.0	0.0	0.0	0.0	0.0	0.0	0.0	0.0	0.0	0.0				
	41	200.00000198402503	-8.285401781433862e-7	120.0	0.0	1.0	241.0	1	200.0	0.0	0.0	0.0	0.0	0.0	0.0	0.0	0.0	0.0	0.0	0.0	0.0				
	42	-9.772379643149328e-7	-8.282114646854864e-7	120.0	0.0	1.0	241.0	1	409.99999999999994	0.0	0.0	0.0	0.0	0.0	0.0	0.0	0.0	0.0	0.0	0.0	0.0				
	43	410.00000409204966	-9.098464112596484e-7	240.0	0.0	1.0	482.0	1	409.99999999999994	0.0	0.0	0.0	0.0	0.0	0.0	0.0	0.0	0.0	0.0	0.0	0.0				
	44	410.0000040900906	-9.099630292988944e-7	240.0	0.0	1.0	482.0	1	409.99999999999994	0.0	0.0	0.0	0.0	0.0	0.0	0.0	0.0	0.0	0.0	0.0	0.0				
	45	42.200000996801265	4.884752836897762e-6	21.0	0.0	1.0	49.0	1	42.2	0.0	0.0	0.0	0.0	0.0	0.0	0.0	0.0	0.0	0.0	0.0	0.0				
	63	650.0000064919047	101.08607667746008	302.0	0.0	1.0	473.0	1	650.0	0.0	0.0	0.0	0.0	0.0	0.0	0.0	0.0	0.0	0.0	0.0	0.0				
	64	450.0000044894642	66.8017838678321	311.0	2.0	1.0	475.0	1	450.0	0.0	0.0	0.0	0.0	0.0	0.0	0.0	0.0	0.0	0.0	0.0	0.0				
	67	750.0000074912851	297.1534822565852	449.0	0.0	1.0	864.0	1	750.0	0.0	0.0	0.0	0.0	0.0	0.0	0.0	0.0	0.0	0.0	0.0	0.0				
	83	225.00000224356546	151.85501585651113	190.0	-89.0	1.0	239.0	1	225.0	0.0	0.0	0.0	0.0	0.0	0.0	0.0	0.0	0.0	0.0	0.0	0.0				
	84	225.00000223922342	-88.99305257296541	190.0	-89.0	1.0	251.0	1	225.0	0.0	0.0	0.0	0.0	0.0	0.0	0.0	0.0	0.0	0.0	0.0	0.0				
	85	120.00000118283656	124.99952126974448	125.0	-50.0	1.0	133.0	1	120.0	0.0	0.0	0.0	0.0	0.0	0.0	0.0	0.0	0.0	0.0	0.0	0.0				
	86	120.00000108963734	-29.1900307033371	125.0	-50.0	1.0	133.0	1	120.0	0.0	0.0	0.0	0.0	0.0	0.0	0.0	0.0	0.0	0.0	0.0	0.0				
	93	120.00000118368432	10.324933961501555	90.0	5.0	1.0	123.0	1	120.0	0.0	0.0	0.0	0.0	0.0	0.0	0.0	0.0	0.0	0.0	0.0	0.0				
	95	110.00000107146342	27.00000107108456	68.0	27.0	1.0	105.0	1	110.00000000000001	0.0	0.0	0.0	0.0	0.0	0.0	0.0	0.0	0.0	0.0	0.0	0.0				
	97	87.60000099642441	27.000000323198535	68.0	27.0	1.0	105.0	1	87.6	0.0	0.0	0.0	0.0	0.0	0.0	0.0	0.0	0.0	0.0	0.0	0.0				
	103	-9.82928149823543e-7	176.98279258550622	177.0	-82.0	1.0	239.0	1	400.0	0.0	0.0	0.0	0.0	0.0	0.0	0.0	0.0	0.0	0.0	0.0	0.0				
	104	225.00000222790658	-29.530536258399852	379.0	-177.0	1.0	490.0	1	225.0	0.0	0.0	0.0	0.0	0.0	0.0	0.0	0.0	0.0	0.0	0.0	0.0				
	105	430.0000042826813	-165.00000028695126	353.0	-165.0	1.0	502.0	1	430.0	0.0	0.0	0.0	0.0	0.0	0.0	0.0	0.0	0.0	0.0	0.0	0.0				
	109	250.00000249645038	23.023179962724765	65.0	0.0	1.0	277.0	1	250.0	0.0	0.0	0.0	0.0	0.0	0.0	0.0	0.0	0.0	0.0	0.0	0.0				
	110	250.00000249645035	23.095819403665796	65.0	0.0	1.0	280.0	1	250.0	0.0	0.0	0.0	0.0	0.0	0.0	0.0	0.0	0.0	0.0	0.0	0.0				
	111	-7.684363126988118e-7	50.36006669145113	270.0	0.0	1.0	401.0	1	360.0	0.0	0.0	0.0	0.0	0.0	0.0	0.0	0.0	0.0	0.0	0.0	0.0				
	123	-9.796331044222395e-7	39.99968876242177	40.0	0.0	1.0	98.0	1	110.00000000000001	0.0	0.0	0.0	0.0	0.0	0.0	0.0	0.0	0.0	0.0	0.0	0.0				
	124	125.00000124184776	2.5947639759119654	90.0	0.0	1.0	132.0	1	125.0	0.0	0.0	0.0	0.0	0.0	0.0	0.0	0.0	0.0	0.0	0.0	0.0				
	125	67.91023229187451	123.66837410834096	360.0	0.0	1.0	654.0	1	860.0	0.0	0.0	0.0	0.0	0.0	0.0	0.0	0.0	0.0	0.0	0.0	0.0				
	127	690.0000068916569	-7.36461430263333e-7	360.0	0.0	1.0	540.0	1	690.0	0.0	0.0	0.0	0.0	0.0	0.0	0.0	0.0	0.0	0.0	0.0	0.0				
	131	-5.649967952158568e-7	0.000855746207690203	360.0	0.0	1.0	696.0	1	1060.0	0.0	0.0	0.0	0.0	0.0	0.0	0.0	0.0	0.0	0.0	0.0	0.0				
	132	-9.647282644864719e-7	161.49079323713488	480.0	0.0	1.0	732.0	1	600.0	0.0	0.0	0.0	0.0	0.0	0.0	0.0	0.0	0.0	0.0	0.0	0.0				
	139	-9.58817132783907e-7	0.0005861922545791817	360.0	0.0	1.0	714.0	1	600.0	0.0	0.0	0.0	0.0	0.0	0.0	0.0	0.0	0.0	0.0	0.0	0.0				
	140	200.00000198936482	90.46273242841	120.0	0.0	1.0	240.0	1	200.0	0.0	0.0	0.0	0.0	0.0	0.0	0.0	0.0	0.0	0.0	0.0	0.0				
	176	600.0000059968182	-119.99977709175968	220.00000000000003	-120.0	1.0	430.0	1	600.0	0.0	0.0	0.0	0.0	0.0	0.0	0.0	0.0	0.0	0.0	0.0	0.0				
	177	200.00000199681836	56.28722853576147	220.00000000000003	-120.0	1.0	430.0	1	200.0	0.0	0.0	0.0	0.0	0.0	0.0	0.0	0.0	0.0	0.0	0.0	0.0				
	180	0.0	-49.65470889551864	99999.0	-99999.0	1.0	7485.0	1	0.0	0.0	0.0	0.0	0.0	0.0	0.0	0.0	0.0	0.0	0.0	0.0	0.0				
	181	175.00000174667431	10.066200549278625	99999.0	-99999.0	1.0	210.0	1	175.0	0.0	0.0	0.0	0.0	0.0	0.0	0.0	0.0	0.0	0.0	0.0	0.0				
	182	307.5900030729628	19.196307584281595	99999.0	-99999.0	1.0	13465.0	1	307.59	0.0	0.0	0.0	0.0	0.0	0.0	0.0	0.0	0.0	0.0	0.0	0.0				
	184	0.0	53.03277210573539	99999.0	-99999.0	1.0	8353.0	1	0.0	0.0	0.0	0.0	0.0	0.0	0.0	0.0	0.0	0.0	0.0	0.0	0.0				
	185	0.0	-43.24125874357532	99999.0	-99999.0	1.0	14254.0	1	0.0	0.0	0.0	0.0	0.0	0.0	0.0	0.0	0.0	0.0	0.0	0.0	0.0				
	186	0.0	-3.730056622614493	99999.0	-99999.0	1.0	7401.0	1	0.0	0.0	0.0	0.0	0.0	0.0	0.0	0.0	0.0	0.0	0.0	0.0	0.0				
	192	95.00000099678874	7.549828668942308	50.0	0.0	1.0	114.0	1	95.0	0.0	0.0	0.0	0.0	0.0	0.0	0.0	0.0	0.0	0.0	0.0	0.0				
	196	0.9000009971792445	1.0000008869105534	1.0	0.0	1.0	1.0	1	0.9000000000000001	0.0	0.0	0.0	0.0	0.0	0.0	0.0	0.0	0.0	0.0	0.0	0.0				
	198	0.8000009969233729	0.9999940184191687	1.0	0.0	1.0	1.0	1	0.8	0.0	0.0	0.0	0.0	0.0	0.0	0.0	0.0	0.0	0.0	0.0	0.0				
	205	15.000000996780713	9.999925534203822	10.0	0.0	1.0	18.0	1	15.0	0.0	0.0	0.0	0.0	0.0	0.0	0.0	0.0	0.0	0.0	0.0	0.0				
	213	11.000000996967307	7.999999462047608	8.0	0.0	1.0	13.0	1	11.0	0.0	0.0	0.0	0.0	0.0	0.0	0.0	0.0	0.0	0.0	0.0	0.0				
	264	2.5000009970097676	3.588447439725564e-6	2.0	0.0	1.0	3.0	1	2.5	0.0	0.0	0.0	0.0	0.0	0.0	0.0	0.0	0.0	0.0	0.0	0.0				
	269	6.000000996833774	4.07829103062916	5.0	0.0	1.0	7.0	1	6.0	0.0	0.0	0.0	0.0	0.0	0.0	0.0	0.0	0.0	0.0	0.0	0.0				
	277	70.00000099675158	38.10706176572455	42.0	0.0	1.0	84.0	1	70.0	0.0	0.0	0.0	0.0	0.0	0.0	0.0	0.0	0.0	0.0	0.0	0.0				
	278	60.000000996775015	7.004843681938406	40.0	0.0	1.0	72.0	1	60.0	0.0	0.0	0.0	0.0	0.0	0.0	0.0	0.0	0.0	0.0	0.0	0.0				
	279	60.00000099676333	17.713296124228847	40.0	0.0	1.0	72.0	1	60.0	0.0	0.0	0.0	0.0	0.0	0.0	0.0	0.0	0.0	0.0	0.0	0.0				
	281	120.00000119672687	28.10239503972602	90.0	0.0	1.0	144.0	1	120.0	0.0	0.0	0.0	0.0	0.0	0.0	0.0	0.0	0.0	0.0	0.0	0.0				
	282	40.00000099673239	16.020448365910095	40.0	0.0	1.0	48.0	1	40.0	0.0	0.0	0.0	0.0	0.0	0.0	0.0	0.0	0.0	0.0	0.0	0.0				
	289	2.5000009967365746	2.9999965947889127	3.0	0.0	1.0	3.0	1	2.5	0.0	0.0	0.0	0.0	0.0	0.0	0.0	0.0	0.0	0.0	0.0	0.0				
	294	2.000000996884444	0.9999986578594635	1.0	0.0	1.0	2.0	1	2.0	0.0	0.0	0.0	0.0	0.0	0.0	0.0	0.0	0.0	0.0	0.0	0.0				
	314	1.5000009969258037	0.9999991260924231	1.0	0.0	1.0	2.0	1	1.5	0.0	0.0	0.0	0.0	0.0	0.0	0.0	0.0	0.0	0.0	0.0	0.0				
	328	44.00000099682008	-8.169845623932712e-7	21.0	0.0	1.0	53.0	1	44.0	0.0	0.0	0.0	0.0	0.0	0.0	0.0	0.0	0.0	0.0	0.0	0.0				
	329	44.00000099692012	16.270431297752474	21.0	0.0	1.0	53.0	1	44.0	0.0	0.0	0.0	0.0	0.0	0.0	0.0	0.0	0.0	0.0	0.0	0.0				
	330	44.00000099678792	-8.847574449211826e-7	21.0	0.0	1.0	53.0	1	44.0	0.0	0.0	0.0	0.0	0.0	0.0	0.0	0.0	0.0	0.0	0.0	0.0				
	331	43.000000996912284	9.618295491079715	21.0	0.0	1.0	52.0	1	43.0	0.0	0.0	0.0	0.0	0.0	0.0	0.0	0.0	0.0	0.0	0.0	0.0				
	334	1.5000009969318528	-7.116297324908891e-7	1.0	0.0	1.0	2.0	1	1.5	0.0	0.0	0.0	0.0	0.0	0.0	0.0	0.0	0.0	0.0	0.0	0.0				
	346	45.22602148840286	32.05648198477738	120.0	0.0	1.0	180.0	1	200.0	0.0	0.0	0.0	0.0	0.0	0.0	0.0	0.0	0.0	0.0	0.0	0.0				
	347	10.000000996831252	1.402494623142091e-6	15.0	0.0	1.0	12.0	1	10.0	0.0	0.0	0.0	0.0	0.0	0.0	0.0	0.0	0.0	0.0	0.0	0.0				
	359	1.5000009969254693	3.6460674520764377e-6	1.0	0.0	1.0	2.0	1	1.5	0.0	0.0	0.0	0.0	0.0	0.0	0.0	0.0	0.0	0.0	0.0	0.0				
	365	5.100000996863844	3.0000000432165463	3.0	0.0	1.0	6.0	1	5.1	0.0	0.0	0.0	0.0	0.0	0.0	0.0	0.0	0.0	0.0	0.0	0.0				
	382	8.000000996917493	5.000000163613053	5.0	0.0	1.0	10.0	1	8.0	0.0	0.0	0.0	0.0	0.0	0.0	0.0	0.0	0.0	0.0	0.0	0.0				
	383	8.000000996912043	5.000000450173174	5.0	0.0	1.0	10.0	1	8.0	0.0	0.0	0.0	0.0	0.0	0.0	0.0	0.0	0.0	0.0	0.0	0.0				
	385	6.000000996942647	4.000000240177964	4.0	0.0	1.0	7.0	1	6.0	0.0	0.0	0.0	0.0	0.0	0.0	0.0	0.0	0.0	0.0	0.0	0.0				
	390	4.500000996700335	3.0000000395541124	3.0	0.0	1.0	5.0	1	4.5	0.0	0.0	0.0	0.0	0.0	0.0	0.0	0.0	0.0	0.0	0.0	0.0				
	395	10.000000996873764	-8.308525037080086e-7	8.0	0.0	1.0	12.0	1	10.0	0.0	0.0	0.0	0.0	0.0	0.0	0.0	0.0	0.0	0.0	0.0	0.0				
	404	3.0000009967279757	3.0000004002410248	3.0	0.0	1.0	4.0	1	3.0	0.0	0.0	0.0	0.0	0.0	0.0	0.0	0.0	0.0	0.0	0.0	0.0				
	426	3.200000996981426	2.0000004735767067	2.0	0.0	1.0	4.0	1	3.2	0.0	0.0	0.0	0.0	0.0	0.0	0.0	0.0	0.0	0.0	0.0	0.0				
	444	1.0000009967548016	-7.063350186847263e-7	1.0	0.0	1.0	1.0	1	1.0	0.0	0.0	0.0	0.0	0.0	0.0	0.0	0.0	0.0	0.0	0.0	0.0				
	451	4.5000009968723615	3.0000002066650984	3.0	0.0	1.0	5.0	1	4.5	0.0	0.0	0.0	0.0	0.0	0.0	0.0	0.0	0.0	0.0	0.0	0.0				
	482	1.0000009967621775	1.000000133705846	1.0	0.0	1.0	1.0	1	1.0	0.0	0.0	0.0	0.0	0.0	0.0	0.0	0.0	0.0	0.0	0.0	0.0				
	492	2.0000009968917887	-6.020768678504249e-7	1.0	0.0	1.0	2.0	1	2.0	0.0	0.0	0.0	0.0	0.0	0.0	0.0	0.0	0.0	0.0	0.0	0.0				
	493	234.00000233680635	51.4059379503632	130.0	0.0	1.0	281.0	1	234.0	0.0	0.0	0.0	0.0	0.0	0.0	0.0	0.0	0.0	0.0	0.0	0.0				
	494	234.00000233685287	76.70162109756397	130.0	0.0	1.0	281.0	1	234.0	0.0	0.0	0.0	0.0	0.0	0.0	0.0	0.0	0.0	0.0	0.0	0.0				
	514	115.00000114691305	61.60581247242505	90.0	0.0	1.0	138.0	1	114.99999999999999	0.0	0.0	0.0	0.0	0.0	0.0	0.0	0.0	0.0	0.0	0.0	0.0				
	515	115.00000114691755	89.99999937699414	90.0	0.0	1.0	138.0	1	114.99999999999999	0.0	0.0	0.0	0.0	0.0	0.0	0.0	0.0	0.0	0.0	0.0	0.0				
	525	6.000000996806635	4.00000000346496	4.0	0.0	1.0	7.0	1	6.0	0.0	0.0	0.0	0.0	0.0	0.0	0.0	0.0	0.0	0.0	0.0	0.0				
	536	6.000000996972159	5.999999201256334	6.0	0.0	1.0	7.0	1	6.0	0.0	0.0	0.0	0.0	0.0	0.0	0.0	0.0	0.0	0.0	0.0	0.0				
	537	3.5000009970131254	0.47074687840949353	3.0	0.0	1.0	4.0	1	3.5000000000000004	0.0	0.0	0.0	0.0	0.0	0.0	0.0	0.0	0.0	0.0	0.0	0.0				
	556	2.7000009968910206	3.5831790548590216e-7	1.0	0.0	1.0	3.0	1	2.7	0.0	0.0	0.0	0.0	0.0	0.0	0.0	0.0	0.0	0.0	0.0	0.0				
	580	1.6000009968148428	2.6010461287895e-7	1.0	0.0	1.0	2.0	1	1.6	0.0	0.0	0.0	0.0	0.0	0.0	0.0	0.0	0.0	0.0	0.0	0.0				
	584	2.7000009968750414	2.2919821296199894e-5	2.0	0.0	1.0	3.0	1	2.7	0.0	0.0	0.0	0.0	0.0	0.0	0.0	0.0	0.0	0.0	0.0	0.0				
	585	4.0000009968731405	1.5376485929179968e-5	2.0	0.0	1.0	5.0	1	4.0	0.0	0.0	0.0	0.0	0.0	0.0	0.0	0.0	0.0	0.0	0.0	0.0				
	607	0.8000009967567131	0.0	0.0	0.0	1.0	1.0	1	0.8	0.0	0.0	0.0	0.0	0.0	0.0	0.0	0.0	0.0	0.0	0.0	0.0				
	612	-9.565096262317491e-7	119.9976609670945	120.0	0.0	1.0	256.0	1	200.0	0.0	0.0	0.0	0.0	0.0	0.0	0.0	0.0	0.0	0.0	0.0	0.0				
	613	200.00000191236546	2.2408953695977436	120.0	0.0	1.0	256.0	1	200.0	0.0	0.0	0.0	0.0	0.0	0.0	0.0	0.0	0.0	0.0	0.0	0.0				
	615	1.4000009967649083	1.095858664253007e-7	1.0	0.0	1.0	2.0	1	1.4	0.0	0.0	0.0	0.0	0.0	0.0	0.0	0.0	0.0	0.0	0.0	0.0				
	623	7.600000996874353	3.023965759960678	5.0	0.0	1.0	9.0	1	7.6	0.0	0.0	0.0	0.0	0.0	0.0	0.0	0.0	0.0	0.0	0.0	0.0				
	639	9.600000996819357	5.637678898657308e-7	4.0	0.0	1.0	12.0	1	9.6	0.0	0.0	0.0	0.0	0.0	0.0	0.0	0.0	0.0	0.0	0.0	0.0				
	651	4.700000996845432	1.4797950944481831e-6	2.0	0.0	1.0	6.0	1	4.7	0.0	0.0	0.0	0.0	0.0	0.0	0.0	0.0	0.0	0.0	0.0	0.0				
	654	1.4000009967486469	-7.831779067507243e-7	1.0	0.0	1.0	2.0	1	1.4	0.0	0.0	0.0	0.0	0.0	0.0	0.0	0.0	0.0	0.0	0.0	0.0				
	664	6.200000996744575	-3.787093314343853e-7	6.0	0.0	1.0	7.0	1	6.2	0.0	0.0	0.0	0.0	0.0	0.0	0.0	0.0	0.0	0.0	0.0	0.0				
	670	2.7000009967614162	-9.075956191936236e-7	2.0	0.0	1.0	3.0	1	2.7	0.0	0.0	0.0	0.0	0.0	0.0	0.0	0.0	0.0	0.0	0.0	0.0				
	674	1.0000009968924537	0.0	0.0	0.0	1.0	1.0	1	1.0	0.0	0.0	0.0	0.0	0.0	0.0	0.0	0.0	0.0	0.0	0.0	0.0				
	688	-9.644301425364843e-7	-6.506297092743029e-7	120.0	0.0	1.0	242.0	1	202.0	0.0	0.0	0.0	0.0	0.0	0.0	0.0	0.0	0.0	0.0	0.0	0.0				
	692	1.4000009968325895	0.2552456352753828	1.0	0.0	1.0	2.0	1	1.4	0.0	0.0	0.0	0.0	0.0	0.0	0.0	0.0	0.0	0.0	0.0	0.0				
	699	3.800000996784423	-9.033633729767427e-7	2.0	0.0	1.0	5.0	1	3.8	0.0	0.0	0.0	0.0	0.0	0.0	0.0	0.0	0.0	0.0	0.0	0.0				
	712	1.2000009968760401	0.9999809593336357	1.0	0.0	1.0	1.0	1	1.2	0.0	0.0	0.0	0.0	0.0	0.0	0.0	0.0	0.0	0.0	0.0	0.0				
	730	6.90000099672042	-9.147209855871866e-7	3.0	0.0	1.0	8.0	1	6.9	0.0	0.0	0.0	0.0	0.0	0.0	0.0	0.0	0.0	0.0	0.0	0.0				
	732	1.1000009968528912	-8.354547832369969e-7	1.0	0.0	1.0	1.0	1	1.1	0.0	0.0	0.0	0.0	0.0	0.0	0.0	0.0	0.0	0.0	0.0	0.0				
	735	4.100000996830728	1.001240070735067e-6	2.0	0.0	1.0	5.0	1	4.1	0.0	0.0	0.0	0.0	0.0	0.0	0.0	0.0	0.0	0.0	0.0	0.0				
	740	4.000000996637156	-9.319902833118754e-7	1.0	0.0	1.0	5.0	1	4.0	0.0	0.0	0.0	0.0	0.0	0.0	0.0	0.0	0.0	0.0	0.0	0.0				
	744	134.00000133656422	-9.16434201068422e-7	60.0	0.0	1.0	161.0	1	134.0	0.0	0.0	0.0	0.0	0.0	0.0	0.0	0.0	0.0	0.0	0.0	0.0				
	754	80.00000098519739	-7.252187059409609e-7	30.0	0.0	1.0	54.0	1	80.0	0.0	0.0	0.0	0.0	0.0	0.0	0.0	0.0	0.0	0.0	0.0	0.0				
	755	-9.71197539535712e-7	-5.909827037748854e-7	80.0	0.0	1.0	110.0	1	250.0	0.0	0.0	0.0	0.0	0.0	0.0	0.0	0.0	0.0	0.0	0.0	0.0				
	760	3.100000996847294	-7.088568659834255e-9	2.0	0.0	1.0	4.0	1	3.1	0.0	0.0	0.0	0.0	0.0	0.0	0.0	0.0	0.0	0.0	0.0	0.0				
	766	2.100000996862317	1.3332965307456557e-6	1.0	0.0	1.0	3.0	1	2.1	0.0	0.0	0.0	0.0	0.0	0.0	0.0	0.0	0.0	0.0	0.0	0.0				
	784	0.7000009968418365	0.0	0.0	0.0	1.0	1.0	1	0.7	0.0	0.0	0.0	0.0	0.0	0.0	0.0	0.0	0.0	0.0	0.0	0.0				
	790	49.80000099666563	35.0	35.0	35.0	1.0	60.0	1	49.8	0.0	0.0	0.0	0.0	0.0	0.0	0.0	0.0	0.0	0.0	0.0	0.0				
	795	1.8900009965504365	1.0	1.0	1.0	1.0	2.0	1	1.8900000000000001	0.0	0.0	0.0	0.0	0.0	0.0	0.0	0.0	0.0	0.0	0.0	0.0				
	798	2.990000996609919	3.0	3.0	3.0	1.0	4.0	1	2.99	0.0	0.0	0.0	0.0	0.0	0.0	0.0	0.0	0.0	0.0	0.0	0.0				
	814	44.92000099657071	12.872732746679084	42.0	0.0	1.0	54.0	1	44.92	0.0	0.0	0.0	0.0	0.0	0.0	0.0	0.0	0.0	0.0	0.0	0.0				
	834	55.00000097187835	82.99999509098976	83.0	0.0	1.0	110.0	1	55.00000000000001	0.0	0.0	0.0	0.0	0.0	0.0	0.0	0.0	0.0	0.0	0.0	0.0				
	878	2.990000996462401	0.0	0.0	0.0	1.0	4.0	1	2.99	0.0	0.0	0.0	0.0	0.0	0.0	0.0	0.0	0.0	0.0	0.0	0.0				
	884	2.4900009967107093	0.0	0.0	0.0	1.0	3.0	1	2.49	0.0	0.0	0.0	0.0	0.0	0.0	0.0	0.0	0.0	0.0	0.0	0.0				
	892	31.870000996673838	27.046916283683736	42.0	6.0	1.0	38.0	1	31.869999999999997	0.0	0.0	0.0	0.0	0.0	0.0	0.0	0.0	0.0	0.0	0.0	0.0				
	895	8.960000996598797	7.000000000000001	7.000000000000001	7.000000000000001	1.0	11.0	1	8.96	0.0	0.0	0.0	0.0	0.0	0.0	0.0	0.0	0.0	0.0	0.0	0.0				
	901	3.6800009965457887	2.0	2.0	2.0	1.0	4.0	1	3.6799999999999997	0.0	0.0	0.0	0.0	0.0	0.0	0.0	0.0	0.0	0.0	0.0	0.0				
	910	4.580000996573257	3.0	3.0	3.0	1.0	6.0	1	4.58	0.0	0.0	0.0	0.0	0.0	0.0	0.0	0.0	0.0	0.0	0.0	0.0				
	911	370.00000368953096	71.9113448257	224.00000000000003	0.0	1.0	415.0	1	370.0	0.0	0.0	0.0	0.0	0.0	0.0	0.0	0.0	0.0	0.0	0.0	0.0				
	912	217.52106612928134	69.44633311513613	224.00000000000003	0.0	1.0	415.0	1	370.0	0.0	0.0	0.0	0.0	0.0	0.0	0.0	0.0	0.0	0.0	0.0	0.0				
	914	15.930000996625646	10.0	10.0	10.0	1.0	19.0	1	15.93	0.0	0.0	0.0	0.0	0.0	0.0	0.0	0.0	0.0	0.0	0.0	0.0				
	917	2.09000099647457	0.0	0.0	0.0	1.0	3.0	1	2.09	0.0	0.0	0.0	0.0	0.0	0.0	0.0	0.0	0.0	0.0	0.0	0.0				
	919	21.910000995937054	12.0	12.0	12.0	1.0	26.0	1	21.91	0.0	0.0	0.0	0.0	0.0	0.0	0.0	0.0	0.0	0.0	0.0	0.0				
	920	1.9900009964308543	0.0	0.0	0.0	1.0	2.0	1	1.9900000000000002	0.0	0.0	0.0	0.0	0.0	0.0	0.0	0.0	0.0	0.0	0.0	0.0				
	929	63.73000099648753	29.000000298749708	50.0	28.999999999999996	1.0	77.0	1	63.73	0.0	0.0	0.0	0.0	0.0	0.0	0.0	0.0	0.0	0.0	0.0	0.0				
	959	2.4900009968024497	1.0	1.0	1.0	1.0	3.0	1	2.49	0.0	0.0	0.0	0.0	0.0	0.0	0.0	0.0	0.0	0.0	0.0	0.0				
	968	0.7000009968088913	0.0	0.0	0.0	1.0	1.0	1	0.7	0.0	0.0	0.0	0.0	0.0	0.0	0.0	0.0	0.0	0.0	0.0	0.0				
	993	3.980000996862975	1.0	1.0	1.0	1.0	5.0	1	3.9800000000000004	0.0	0.0	0.0	0.0	0.0	0.0	0.0	0.0	0.0	0.0	0.0	0.0				
	994	1.990000996862977	1.0	1.0	1.0	1.0	2.0	1	1.9900000000000002	0.0	0.0	0.0	0.0	0.0	0.0	0.0	0.0	0.0	0.0	0.0	0.0				
	995	-9.776022394881056e-7	37.99999660989393	38.0	0.0	1.0	60.0	1	100.0	0.0	0.0	0.0	0.0	0.0	0.0	0.0	0.0	0.0	0.0	0.0	0.0				
	996	-9.64872277628326e-7	5.759958387348712	38.0	0.0	1.0	60.0	1	50.0	0.0	0.0	0.0	0.0	0.0	0.0	0.0	0.0	0.0	0.0	0.0	0.0				
	997	-9.744984337999067e-7	37.999998126347414	38.0	0.0	1.0	60.0	1	50.0	0.0	0.0	0.0	0.0	0.0	0.0	0.0	0.0	0.0	0.0	0.0	0.0				
	1004	4.280000996692984	3.0	3.0	3.0	1.0	5.0	1	4.28	0.0	0.0	0.0	0.0	0.0	0.0	0.0	0.0	0.0	0.0	0.0	0.0				
	1024	0.10000099676973635	0.0	0.0	0.0	1.0	0.0	1	0.1	0.0	0.0	0.0	0.0	0.0	0.0	0.0	0.0	0.0	0.0	0.0	0.0				
	1027	24.900000996468727	13.0	13.0	13.0	1.0	30.0	1	24.9	0.0	0.0	0.0	0.0	0.0	0.0	0.0	0.0	0.0	0.0	0.0	0.0				
	1028	2.9900009964687886	3.0	3.0	3.0	1.0	4.0	1	2.99	0.0	0.0	0.0	0.0	0.0	0.0	0.0	0.0	0.0	0.0	0.0	0.0				
	1029	24.900000996484227	14.000000000000002	14.000000000000002	14.000000000000002	1.0	30.0	1	24.9	0.0	0.0	0.0	0.0	0.0	0.0	0.0	0.0	0.0	0.0	0.0	0.0				
	1053	59.760000996571904	22.45137939372321	53.0	0.0	1.0	72.0	1	59.760000000000005	0.0	0.0	0.0	0.0	0.0	0.0	0.0	0.0	0.0	0.0	0.0	0.0				
	1054	29.880000996787974	1.5684008595515482e-6	31.0	0.0	1.0	36.0	1	29.880000000000003	0.0	0.0	0.0	0.0	0.0	0.0	0.0	0.0	0.0	0.0	0.0	0.0				
	1105	7.9700009966620815	10.0	10.0	10.0	1.0	10.0	1	7.969999999999999	0.0	0.0	0.0	0.0	0.0	0.0	0.0	0.0	0.0	0.0	0.0	0.0				
	1106	22.91000099667287	13.0	13.0	13.0	1.0	28.0	1	22.91	0.0	0.0	0.0	0.0	0.0	0.0	0.0	0.0	0.0	0.0	0.0	0.0				
	1107	10.560000996533752	3.0	3.0	3.0	1.0	13.0	1	10.56	0.0	0.0	0.0	0.0	0.0	0.0	0.0	0.0	0.0	0.0	0.0	0.0				
	1138	44.82000099647825	20.451789944015893	41.0	0.0	1.0	54.0	1	44.82	0.0	0.0	0.0	0.0	0.0	0.0	0.0	0.0	0.0	0.0	0.0	0.0				
	1140	230.0000022853544	47.50887276830566	199.0	-87.0	1.0	252.0	1	229.99999999999997	0.0	0.0	0.0	0.0	0.0	0.0	0.0	0.0	0.0	0.0	0.0	0.0				
	1141	-9.396495190930985e-7	55.85112133856464	190.0	-89.0	1.0	251.0	1	225.0	0.0	0.0	0.0	0.0	0.0	0.0	0.0	0.0	0.0	0.0	0.0	0.0				
	1175	37.84000099672935	20.0	20.0	20.0	1.0	45.0	1	37.84	0.0	0.0	0.0	0.0	0.0	0.0	0.0	0.0	0.0	0.0	0.0	0.0				
	1182	-9.833530901857868e-7	5.013495445225162	125.0	-50.0	1.0	133.0	1	120.0	0.0	0.0	0.0	0.0	0.0	0.0	0.0	0.0	0.0	0.0	0.0	0.0				
	1183	120.00000119258318	5.026500450728304	125.0	-50.0	1.0	133.0	1	120.0	0.0	0.0	0.0	0.0	0.0	0.0	0.0	0.0	0.0	0.0	0.0	0.0				
	1184	-9.317946389993853e-7	66.43792288321976	125.0	-50.0	1.0	133.0	1	120.0	0.0	0.0	0.0	0.0	0.0	0.0	0.0	0.0	0.0	0.0	0.0	0.0				
	1191	106.5600010622168	22.35024947138853	129.0	-47.0	1.0	128.0	1	106.56000000000002	0.0	0.0	0.0	0.0	0.0	0.0	0.0	0.0	0.0	0.0	0.0	0.0				
	1192	250.00000249317847	44.48188877386461	125.0	-50.0	1.0	123.0	1	250.0	0.0	0.0	0.0	0.0	0.0	0.0	0.0	0.0	0.0	0.0	0.0	0.0				
	1201	99.590000996445	0.06534110689571618	90.0	0.0	1.0	120.0	1	99.59	0.0	0.0	0.0	0.0	0.0	0.0	0.0	0.0	0.0	0.0	0.0	0.0				
	1202	99.590000996445	47.08741431840506	90.0	0.0	1.0	120.0	1	99.59	0.0	0.0	0.0	0.0	0.0	0.0	0.0	0.0	0.0	0.0	0.0	0.0				
	1203	99.59000099646055	22.836325542417	90.0	0.0	1.0	120.0	1	99.59	0.0	0.0	0.0	0.0	0.0	0.0	0.0	0.0	0.0	0.0	0.0	0.0				
	1232	51.79000099667619	15.713600783654233	41.0	0.0	1.0	62.0	1	51.790000000000006	0.0	0.0	0.0	0.0	0.0	0.0	0.0	0.0	0.0	0.0	0.0	0.0				
	1233	14.940000996694849	10.594483419975598	41.0	0.0	1.0	18.0	1	14.940000000000001	0.0	0.0	0.0	0.0	0.0	0.0	0.0	0.0	0.0	0.0	0.0	0.0				
	1244	18.920000996620587	20.0	20.0	20.0	1.0	23.0	1	18.92	0.0	0.0	0.0	0.0	0.0	0.0	0.0	0.0	0.0	0.0	0.0	0.0				
	1247	15.930000996621379	12.0	12.0	12.0	1.0	19.0	1	15.93	0.0	0.0	0.0	0.0	0.0	0.0	0.0	0.0	0.0	0.0	0.0	0.0				
	1250	197.19000196847048	42.990836350087164	151.0	0.0	1.0	237.0	1	197.19	0.0	0.0	0.0	0.0	0.0	0.0	0.0	0.0	0.0	0.0	0.0	0.0				
	1268	0.5000009966086744	0.0	0.0	0.0	1.0	1.0	1	0.5	0.0	0.0	0.0	0.0	0.0	0.0	0.0	0.0	0.0	0.0	0.0	0.0				
	1316	1.0000009967418408	0.0	0.0	0.0	1.0	1.0	1	1.0	0.0	0.0	0.0	0.0	0.0	0.0	0.0	0.0	0.0	0.0	0.0	0.0				
	1325	1.390000996462221	0.0	0.0	0.0	1.0	2.0	1	1.39	0.0	0.0	0.0	0.0	0.0	0.0	0.0	0.0	0.0	0.0	0.0	0.0				
	1349	1.4900009969477674	0.0	0.0	0.0	1.0	2.0	1	1.49	0.0	0.0	0.0	0.0	0.0	0.0	0.0	0.0	0.0	0.0	0.0	0.0				
	1356	1.000000996634434	2.0	2.0	2.0	1.0	1.0	1	1.0	0.0	0.0	0.0	0.0	0.0	0.0	0.0	0.0	0.0	0.0	0.0	0.0				
	1359	0.8000009967412186	1.0	1.0	1.0	1.0	1.0	1	0.8	0.0	0.0	0.0	0.0	0.0	0.0	0.0	0.0	0.0	0.0	0.0	0.0				
	1393	12.75000099668763	-8.396731311803511e-7	11.0	0.0	1.0	15.0	1	12.75	0.0	0.0	0.0	0.0	0.0	0.0	0.0	0.0	0.0	0.0	0.0	0.0				
	1403	4.280000996578626	1.0	1.0	1.0	1.0	5.0	1	4.28	0.0	0.0	0.0	0.0	0.0	0.0	0.0	0.0	0.0	0.0	0.0	0.0				
	1416	338.87387380431215	26.170478615328367	180.0	10.0	1.0	246.0	1	371.0	0.0	0.0	0.0	0.0	0.0	0.0	0.0	0.0	0.0	0.0	0.0	0.0				
	1417	120.00000106860259	24.546798643387792	120.0	5.0	1.0	123.0	1	120.0	0.0	0.0	0.0	0.0	0.0	0.0	0.0	0.0	0.0	0.0	0.0	0.0				
	1418	20.000000778375686	21.933414924287437	90.0	5.0	1.0	123.0	1	20.0	0.0	0.0	0.0	0.0	0.0	0.0	0.0	0.0	0.0	0.0	0.0	0.0				
	1426	447.94218987067256	27.00000385500677	68.0	27.0	1.0	106.0	1	495.0	0.0	0.0	0.0	0.0	0.0	0.0	0.0	0.0	0.0	0.0	0.0	0.0				
	1429	0.20000099658280449	0.0	0.0	0.0	1.0	0.0	1	0.2	0.0	0.0	0.0	0.0	0.0	0.0	0.0	0.0	0.0	0.0	0.0	0.0				
	1469	0.6000009967216865	0.0	0.0	0.0	1.0	1.0	1	0.6	0.0	0.0	0.0	0.0	0.0	0.0	0.0	0.0	0.0	0.0	0.0	0.0				
	1475	2.090000996605829	2.0	2.0	2.0	1.0	3.0	1	2.09	0.0	0.0	0.0	0.0	0.0	0.0	0.0	0.0	0.0	0.0	0.0	0.0				
	1504	31.17000099665984	2.0	2.0	2.0	1.0	37.0	1	31.17	0.0	0.0	0.0	0.0	0.0	0.0	0.0	0.0	0.0	0.0	0.0	0.0				
	1505	48.80000099664832	4.0	4.0	4.0	1.0	59.0	1	48.8	0.0	0.0	0.0	0.0	0.0	0.0	0.0	0.0	0.0	0.0	0.0	0.0				
	1514	2.2900009939063213	1.0	1.0	1.0	1.0	3.0	1	2.29	0.0	0.0	0.0	0.0	0.0	0.0	0.0	0.0	0.0	0.0	0.0	0.0				
	1534	0.3000009966256684	0.0	0.0	0.0	1.0	0.0	1	0.3	0.0	0.0	0.0	0.0	0.0	0.0	0.0	0.0	0.0	0.0	0.0	0.0				
	1536	-9.742547398372366e-7	25.031360537858326	190.0	-89.0	1.0	251.0	1	225.0	0.0	0.0	0.0	0.0	0.0	0.0	0.0	0.0	0.0	0.0	0.0	0.0				
	1537	225.00000224264238	50.381152498503226	202.99999999999997	-95.0	1.0	255.0	1	225.0	0.0	0.0	0.0	0.0	0.0	0.0	0.0	0.0	0.0	0.0	0.0	0.0				
	1538	215.0000021385348	18.32494736109339	190.0	-89.0	1.0	255.0	1	215.0	0.0	0.0	0.0	0.0	0.0	0.0	0.0	0.0	0.0	0.0	0.0	0.0				
	1542	8.96000099664814	3.0	3.0	3.0	1.0	11.0	1	8.96	0.0	0.0	0.0	0.0	0.0	0.0	0.0	0.0	0.0	0.0	0.0	0.0				
	1543	1.200000996501896	0.0	0.0	0.0	1.0	1.0	1	1.2	0.0	0.0	0.0	0.0	0.0	0.0	0.0	0.0	0.0	0.0	0.0	0.0				
	1550	1.790000996567878	1.0	1.0	1.0	1.0	2.0	1	1.79	0.0	0.0	0.0	0.0	0.0	0.0	0.0	0.0	0.0	0.0	0.0	0.0				
	1566	54.77000099666299	20.000041855732007	47.0	20.0	1.0	66.0	1	54.77000000000001	0.0	0.0	0.0	0.0	0.0	0.0	0.0	0.0	0.0	0.0	0.0	0.0				
	1587	63.74000099661294	27.0	27.0	27.0	1.0	77.0	1	63.739999999999995	0.0	0.0	0.0	0.0	0.0	0.0	0.0	0.0	0.0	0.0	0.0	0.0				
	1600	17.43000099652741	3.0	3.0	3.0	1.0	21.0	1	17.43	0.0	0.0	0.0	0.0	0.0	0.0	0.0	0.0	0.0	0.0	0.0	0.0				
	1602	120.0000008151441	11.065471160271867	90.0	0.0	1.0	144.0	1	120.0	0.0	0.0	0.0	0.0	0.0	0.0	0.0	0.0	0.0	0.0	0.0	0.0				
	1603	120.0000011836178	68.2122466454253	90.0	0.0	1.0	144.0	1	120.0	0.0	0.0	0.0	0.0	0.0	0.0	0.0	0.0	0.0	0.0	0.0	0.0				
	1609	0.30000099733069496	0.0	0.0	0.0	1.0	0.0	1	0.3	0.0	0.0	0.0	0.0	0.0	0.0	0.0	0.0	0.0	0.0	0.0	0.0				
	1617	2.0000009971001864	0.0	0.0	0.0	1.0	2.0	1	2.0	0.0	0.0	0.0	0.0	0.0	0.0	0.0	0.0	0.0	0.0	0.0	0.0				
	1620	1.600000997072415	0.0	0.0	0.0	1.0	2.0	1	1.6	0.0	0.0	0.0	0.0	0.0	0.0	0.0	0.0	0.0	0.0	0.0	0.0				
...
];

%% branch data
%    f_bus    t_bus    r    x    b    rateA    rateB    rateC    ratio    angle    status    angmin    angmax
mpc.branch = [
	16	1	0.00155	0.01169	0.0182	160.0	160.0	160.0	0	0	1	-60.0001403060998	60.0001403060998	71.37689484156624	4.151737509935236	-71.30984785180955	-5.798084687772406				
	355	1	0.00157	0.06612	0.0	160.0	160.0	160.0	1.0099	0.0	1	-60.0001403060998	60.0001403060998	-71.24178541608495	-2.931659050760699	71.30984785180955	5.798084687772406				
	17	2	0.00155	0.01169	0.0182	160.0	160.0	160.0	0	0	1	-60.0001403060998	60.0001403060998	122.08225510814007	18.700638385660202	-121.88015879347095	-19.303917864501674				
	354	2	0.00157	0.06612	0.0	160.0	160.0	160.0	1.022	0.0	1	-60.0001403060998	60.0001403060998	-121.67491833843327	-10.660288000111946	121.88015879347095	19.303917864501674				
	10	3	0.01068	0.07895	0.1226	274.0	274.0	274.0	0	0	1	-60.0001403060998	60.0001403060998	118.83857310092378	7.746869735694005	-117.53898107707037	-12.341425254828929				
	219	3	0.00165	0.06736	0.0	160.0	160.0	160.0	1.027	0.0	1	-60.0001403060998	60.0001403060998	-46.90827362911834	-10.297198935382731	46.94221094343844	11.682664082413682				
	220	3	0.00165	0.06736	0.0	160.0	160.0	160.0	0.9955	0.0	1	-60.0001403060998	60.0001403060998	-70.52448337788321	2.2922908683320964	70.59677013363192	0.6587611724152463				
	7	4	0.01674	0.09711	0.14423	377.0	377.0	377.0	0	0	1	-60.0001403060998	60.0001403060998	-175.198432040709	14.158713234344415	179.95277117529142	-2.726290561284768				
	11	4	0.00293	0.01599	0.02478	335.0	335.0	335.0	0	0	1	-60.0001403060998	60.0001403060998	131.50795468394782	9.376149641761193	-131.06513368369295	-9.800927303825654				
	14	4	0.00442	0.03223	0.04985	463.99999999999994	463.99999999999994	463.99999999999994	0	0	1	-60.0001403060998	60.0001403060998	172.17550546559463	-39.274376863588984	-170.96406885376737	42.44663388836843				
	16	4	0.00888	0.06665	0.08896	377.0	377.0	377.0	0	0	1	-60.0001403060998	60.0001403060998	179.35605005079444	12.278026817749195	-176.92054770456798	-4.341342656041998				
	22	4	0.00783	0.043	0.04962	350.0	350.0	350.0	0	0	1	-60.0001403060998	60.0001403060998	-162.69731958265098	44.662077231090095	164.65014277434142	-39.62710243114852				
	245	4	0.00165	0.06901	0.0	160.0	160.0	160.0	1.0594	0.0	1	-60.0001403060998	60.0001403060998	-83.8085325603614	-14.73647179744599	83.91568006397718	19.21783496382428				
	246	4	0.00165	0.06901	0.0	160.0	160.0	160.0	1.0448	0.0	1	-60.0001403060998	60.0001403060998	-50.39399999677359	6.72283713976962	50.43115622841825	-5.168805899891763				
	5	6	0.00064	0.0305	0.0	400.0	400.0	400.0	1.0435	-0.6	1	-60.0001403060998	60.0001403060998	-216.17201333948688	-8.470423051995901	216.46486627696447	22.426695853660462				
	7	5	0.00525	0.03988	0.06195	381.0	381.0	381.0	0	0	1	-60.0001403060998	60.0001403060998	-83.1532165877903	-11.000761537003086	83.48661458258623	6.682752743514901				
	10	5	0.01459	0.11219	0.16553	381.0	381.0	381.0	0	0	1	-60.0001403060998	60.0001403060998	-3.691315930880011	20.260710285681323	3.804514465124175	-38.36620731403603				
	309	5	0.00165	0.0686	0.0	160.0	160.0	160.0	1.0646	0.0	1	-60.0001403060998	60.0001403060998	-64.21874612748402	-26.31005136074037	64.29278025241113	29.388076191042593				
	309	5	0.00165	0.0686	0.0	160.0	160.0	160.0	1.0523	0.0	1	-60.0001403060998	60.0001403060998	-64.52458408795741	-8.124911330514047	64.58810403936535	10.76580143147444				
	6	8	0.00112	0.01329	0.34125	1316.0	1316.0	1316.0	0	0	1	-60.0001403060998	60.0001403060998	-219.46732467778958	-38.981686629567506	219.99345785144433	9.71047079020031				
	6	9	0.00299	0.03675	0.9184	1427.0	1427.0	1427.0	0	0	1	-60.0001403060998	60.0001403060998	111.71686928634837	-85.45562778788924	-111.31476032312962	-5.7141363621366015				
	15	6	0.00298	0.03417	0.93504	1427.0	1427.0	1427.0	0	0	1	-60.0001403060998	60.0001403060998	-123.6596201448123	-43.502647424247684	124.10307124111728	-47.91032921141488				
	31	6	0.0015	0.01506	0.4032	1385.0	1385.0	1385.0	0	0	1	-60.0001403060998	60.0001403060998	439.94719665123137	-132.6456012173576	-436.884478220099	122.17398349009194				
	310	6	0.0015	0.06188	0.0	250.0	250.0	250.0	1.0613	0.0	1	-60.0001403060998	60.0001403060998	-203.452313946969	-2.389276801938347	204.0669960934585	27.746964285119226				
	12	7	0.01211	0.08742	0.14017	381.0	381.0	381.0	0	0	1	-60.0001403060998	60.0001403060998	-50.00202949541483	10.976169886871732	50.31150575868265	-24.263107936561653				
	13	7	0.00205	0.01326	0.02243	335.0	335.0	335.0	0	0	1	-60.0001403060998	60.0001403060998	13.180813432476631	11.691552556517008	-13.174472051300807	-14.1175942108534				
	19	7	0.0057	0.0407	0.06021	323.0	323.0	323.0	0	0	1	-60.0001403060998	60.0001403060998	-59.03634577101342	28.08866135801672	59.2648512333962	-33.122342671788765				
	21	7	0.00093	0.00651	0.01113	160.0	160.0	160.0	0	0	1	-60.0001403060998	60.0001403060998	-89.28179029150438	22.13987465617772	89.35361342260586	-22.859793691567624				
	29	7	0.01269	0.07498	0.1302	362.0	362.0	362.0	0	0	1	-60.0001403060998	60.0001403060998	127.034508547793	-21.765694351975593	-125.14758046875274	18.60866113892982				
	321	7	0.00041	0.03368	0.0	250.0	250.0	250.0	1.0323	0.0	1	-60.0001403060998	60.0001403060998	-103.9883237958839	-5.537072041342124	104.02903177184402	8.881083334848281				
	322	7	0.00165	0.06775	0.0	160.0	160.0	160.0	1.0569	0.0	1	-60.0001403060998	60.0001403060998	-93.52170151901868	-55.79055036170148	93.71469896202412	63.71514233965202				
	8	18	0.00336	0.03977	1.02163	1316.0	1316.0	1316.0	0	0	1	-60.0001403060998	60.0001403060998	-219.99345785144433	-9.71047079020031	221.60889759612346	-77.4435219782868				
	332	9	0.00087	0.05244	-0.02144	330.0	330.0	330.0	1.0781	0.0	1	-60.0001403060998	60.0001403060998	-111.2126988618002	2.702353880122492	111.31476032312962	5.7141363621366015				
	171	10	0.01409	0.10413	0.15972	463.99999999999994	463.99999999999994	463.99999999999994	0	0	1	-60.0001403060998	60.0001403060998	-105.38702795559584	-17.18086567003116	106.79128985241486	9.189460279290405				
	346	10	0.00124	0.06839	0.0	160.0	160.0	160.0	1.0054	0.0	1	-60.0001403060998	60.0001403060998	-79.13347738249747	16.864056887087344	79.20126218110381	-13.125506583307406				
	347	10	0.00124	0.06839	0.0	160.0	160.0	160.0	1.024	0.0	1	-60.0001403060998	60.0001403060998	-88.9905770615792	-9.635499690039826	89.07619477142494	14.357592574192077				
	16	11	0.0057	0.03952	0.07553	463.99999999999994	463.99999999999994	463.99999999999994	0	0	1	-60.0001403060998	60.0001403060998	248.991144188681	10.802819910999656	-245.99556056409756	1.144114245129237				
	17	11	0.0057	0.03952	0.07553	463.99999999999994	463.99999999999994	463.99999999999994	0	0	1	-60.0001403060998	60.0001403060998	299.1429818822195	-5.589088197489001	-294.79467358399955	26.95666451156328				
	111	11	0.01068	0.06196	0.09496	394.0	394.0	394.0	0	0	1	-60.0001403060998	60.0001403060998	-221.20288607345927	73.42872517767314	226.17889378621467	-55.65345416385752				
	352	11	0.00165	0.06901	0.0	160.0	160.0	160.0	1.0412	0.0	1	-60.0001403060998	60.0001403060998	-104.48151540805692	8.375182033062082	104.63838253804887	-1.8143331598837649				
	353	11	0.00165	0.06901	0.0	160.0	160.0	160.0	1.0559	0.0	1	-60.0001403060998	60.0001403060998	-78.37109911163654	-16.063394083182096	78.46500313988572	19.99085892528758				
	140	12	0.01465	0.10589	0.17085	463.99999999999994	463.99999999999994	463.99999999999994	0	0	1	-60.0001403060998	60.0001403060998	41.43413934174996	23.428661018157346	-41.085490422950684	-40.67656615427777				
	359	12	0.00155	0.06612	0.0	160.0	160.0	160.0	1.0395	0.0	1	-60.0001403060998	60.0001403060998	-64.44673566652817	-8.858698684772982	64.50629649450593	11.399448327281728				
	360	12	0.00157	0.06612	0.0	160.0	160.0	160.0	1.059	0.0	1	-60.0001403060998	60.0001403060998	-26.56658067290991	-17.684273613503827	26.5812234238596	18.30094794012431				
	29	13	0.01345	0.08114	0.14113	339.0	339.0	339.0	0	0	1	-60.0001403060998	60.0001403060998	115.52062431474388	-23.131765061336672	-113.85946960424565	17.617986699626016				
	365	13	0.00165	0.06901	0.0	160.0	160.0	160.0	1.0312	0.0	1	-60.0001403060998	60.0001403060998	-45.594650291527614	2.063014240893342	45.62583154507966	-0.7588819332405359				
	366	13	0.00165	0.06901	0.0	160.0	160.0	160.0	0.9872	0.0	1	-60.0001403060998	60.0001403060998	-54.99523345845736	30.95936430453249	55.05282462668934	-28.550657322902488				
	17	14	0.00384	0.02853	0.04588	463.99999999999994	463.99999999999994	463.99999999999994	0	0	1	-60.0001403060998	60.0001403060998	287.3591413839615	44.430983094743546	-284.58335104711335	-29.09114317095766				
	367	14	0.00157	0.06798	0.0	160.0	160.0	160.0	1.0664	0.0	1	-60.0001403060998	60.0001403060998	-65.61610380991418	-28.935901953027837	65.69041710196316	32.15362016544132				
	368	14	0.00165	0.06901	0.0	160.0	160.0	160.0	1.0777	0.0	1	-60.0001403060998	60.0001403060998	-46.66641655594848	-34.07836480963355	46.7174284795556	36.21189986910533				
	18	15	0.00358	0.04262	1.0944	1662.0	1662.0	1662.0	0	0	1	-60.0001403060998	60.0001403060998	372.78006834358644	-53.140975476009174	-367.9686354541026	-2.471829831771933				
	15	165	0.00207	0.02474	0.664	831.0	831.0	831.0	0	0	1	-60.0001403060998	60.0001403060998	357.79849611528516	-22.92985373132179	-355.22071127609627	-14.16743706863938				
	374	15	0.0015	0.06188	0.0	250.0	250.0	250.0	1.1502	0.0	1	-60.0001403060998	60.0001403060998	-133.4994749312683	-55.27899225392506	133.82975948362974	68.90433098734141				
	16	18	0.00036	0.02519	0.0	500.0	500.0	500.0	1.0605	0.0	1	-60.0001403060998	60.0001403060998	166.13735167509404	38.39881546896168	-166.03793315515767	-31.442280698974084				
	16	73	0.00909	0.0624	0.11142	463.99999999999994	463.99999999999994	463.99999999999994	0	0	1	-60.0001403060998	60.0001403060998	10.234566438443045	10.65526362486312	-10.203677465075984	-23.507030058347503				
	17	18	0.00036	0.02519	0.0	500.0	500.0	500.0	1.0607	0.0	1	-60.0001403060998	60.0001403060998	240.52955541613565	20.60564872493726	-240.3283306221928	-6.52550272654452				
	17	74	0.00868	0.06405	0.09699	463.99999999999994	463.99999999999994	463.99999999999994	0	0	1	-60.0001403060998	60.0001403060998	69.28607699473159	-0.6025224046240005	-68.92894640197558	-8.058077041976603				
	20	18	0.00063	0.00749	0.39226	1427.0	1427.0	1427.0	0	0	1	-60.0001403060998	60.0001403060998	-208.6588820279657	83.81592467347552	208.98644655419042	-120.73332368509068				
	75	18	0.00219	0.02369	0.59584	1434.0	1434.0	1434.0	0	0	1	-60.0001403060998	60.0001403060998	0.37892836887504017	-23.383145346675047	-0.37772844392216637	-38.32475499912385				
	18	76	0.00137	0.01625	0.41184	1662.0	1662.0	1662.0	0	0	1	-60.0001403060998	60.0001403060998	-0.28122630578805413	-32.06339233085727	0.28276402995272404	-10.57790859922211				
	18	101	0.00231	0.02769	0.70144	1662.0	1662.0	1662.0	0	0	1	-60.0001403060998	60.0001403060998	1.1510395547003907	-60.32624728051417	-1.1380791614017527	-12.519336501600439				
	124	19	0.01696	0.12366	0.19699	463.99999999999994	463.99999999999994	463.99999999999994	0	0	1	-60.0001403060998	60.0001403060998	22.13952303673032	18.48182240352192	-21.940205425428253	-39.807919211850404				
	425	19	0.00165	0.06818	0.0	160.0	160.0	160.0	1.0241	0.0	1	-60.0001403060998	60.0001403060998	-80.87758189445879	-7.629726333110456	80.97655119644168	11.719257853833682				
	67	20	0.00331	0.03425	0.85888	831.0	831.0	831.0	0	0	1	-60.0001403060998	60.0001403060998	-94.41135676097247	11.257983012982878	94.78662313697224	-98.64857272773068				
	447	20	0.00137	0.06119	-0.01504	250.0	250.0	250.0	1.0796	0.0	1	-60.0001403060998	60.0001403060998	-60.1932491489548	4.761328485696283	60.240788717896635	-1.0622134632704796				
	448	20	0.00137	0.06119	-0.01504	250.0	250.0	250.0	1.0923	0.0	1	-60.0001403060998	60.0001403060998	-53.59083826633807	-12.519883342810353	53.631470173096815	15.894861517525637				
	502	21	0.00165	0.07107	0.0	160.0	160.0	160.0	0.9922	0.0	1	-60.0001403060998	60.0001403060998	-89.15477436012813	27.610797227637836	89.28179029150438	-22.13987465617772				
	112	22	0.00465	0.02618	0.02962	362.0	362.0	362.0	0	0	1	-60.0001403060998	60.0001403060998	-171.831867412286	94.77330370492415	173.35722363843183	-89.64504603196475				
	526	22	0.00165	0.06901	0.0	160.0	160.0	160.0	1.0685	0.0	1	-60.0001403060998	60.0001403060998	-12.424975466609949	-41.92025798614602	12.453839912996086	43.12749158924144				
	527	22	0.00165	0.06901	0.0	160.0	160.0	160.0	1.0424	0.0	1	-60.0001403060998	60.0001403060998	23.121445933712444	-1.533348363027344	-23.113743968776948	1.8554772116332188				
	37	23	0.01163	0.07031	0.1058	394.0	394.0	394.0	0	0	1	-60.0001403060998	60.0001403060998	-1.1133356223385176	-1.811794540560568	1.1151326840125524	-9.668166694060416				
	46	23	0.00837	0.04868	0.07348	457.0	457.0	457.0	0	0	1	-60.0001403060998	60.0001403060998	-8.949085713725061	-5.221174479598236	8.955409430581954	-2.693171689342427				
	53	23	0.01122	0.06558	0.09835	274.0	274.0	274.0	0	0	1	-60.0001403060998	60.0001403060998	92.71450474123448	-10.590665315953572	-91.83006255281994	5.052917042385704				
	540	23	0.0014	0.0668	0.0	160.0	160.0	160.0	1.0182	0.0	1	-60.0001403060998	60.0001403060998	-81.67245348253182	-3.1540837407792477	81.75952043822542	7.308421341017139				
	54	24	0.00769	0.05727	0.08789	160.0	160.0	160.0	0	0	1	-60.0001403060998	60.0001403060998	42.9065661701085	-11.871514051428242	-42.77514316900004	3.121013742987072				
	545	24	0.00151	0.06715	0.0	160.0	160.0	160.0	1.0161	0.0	1	-60.0001403060998	60.0001403060998	-42.750074387633106	4.235827430926896	42.77514316900004	-3.121013742987072				
	41	25	0.00556	0.04145	0.0636	274.0	274.0	274.0	0	0	1	-60.0001403060998	60.0001403060998	84.4819029277377	-1.1521992724844252	-84.12589334869433	-3.256013942825408				
	53	25	0.00452	0.03368	0.05169	463.99999999999994	463.99999999999994	463.99999999999994	0	0	1	-60.0001403060998	60.0001403060998	-111.00673985128094	-2.8677148598197593	111.5158930862371	0.9777014391343914				
	54	25	0.00019	0.0014	0.00213	463.99999999999994	463.99999999999994	463.99999999999994	0	0	1	-60.0001403060998	60.0001403060998	83.55749118964201	13.173853339077349	-83.54519331762567	-13.31873771673499				
	564	25	0.00157	0.07808	0.0	160.0	160.0	160.0	1.0276	0.0	1	-60.0001403060998	60.0001403060998	-56.10694584958359	-13.19757073164412	56.15519358008291	15.597050220426006				
	38	26	0.00698	0.05196	0.07967	160.0	160.0	160.0	0	0	1	-60.0001403060998	60.0001403060998	63.288595170891085	1.9332236571915642	-63.02927998574591	-8.619681264909246				
	568	26	0.00149	0.06616	0.0	160.0	160.0	160.0	1.013	0.0	1	-60.0001403060998	60.0001403060998	-62.97315553909757	-6.127605164067233	63.02927998574591	8.619681264909246				
	28	27	0.0	0.0001	0.0	876.0	876.0	876.0	0	0	1	-60.0001403060998	60.0001403060998	114.10806514369047	-8.226938599232342	-114.10806514369047	8.238713106969282				
	33	27	0.0024	0.01494	0.02253	160.0	160.0	160.0	0	0	1	-60.0001403060998	60.0001403060998	-83.7945724140093	-18.22149762960048	83.95371968103878	16.718174910493623				
	48	27	0.01213	0.06215	0.09371	362.0	362.0	362.0	0	0	1	-60.0001403060998	60.0001403060998	-136.29419978152353	9.373688342566124	138.38549383074988	-8.972409045561344				
	27	74	0.01116	0.07231	0.10367	304.0	304.0	304.0	0	0	1	-60.0001403060998	60.0001403060998	-108.23114836809818	-15.984478971901558	109.4176759781758	11.917158714531933				
	47	28	0.00248	0.01798	0.02759	463.99999999999994	463.99999999999994	463.99999999999994	0	0	1	-60.0001403060998	60.0001403060998	-46.86476961658801	-12.304446587978621	46.91665557669333	9.622413707556502				
	28	88	0.01488	0.08161	0.1148	362.0	362.0	362.0	0	0	1	-60.0001403060998	60.0001403060998	-161.0247207203838	-1.3954751083241577	164.4989821046184	7.368657273498356				
	30	29	0.0	0.0001	0.0	876.0	876.0	876.0	0	0	1	-60.0001403060998	60.0001403060998	-42.83020515203059	-72.11485884072832	42.83020515203059	72.1212571575809				
	29	32	0.00034	0.02097	0.0	500.0	500.0	500.0	1.0619	0.0	1	-60.0001403060998	60.0001403060998	-386.4071644075563	-58.99471934061557	386.9398727774624	91.85029144923607				
	45	29	0.00545	0.04021	0.06699	463.99999999999994	463.99999999999994	463.99999999999994	0	0	1	-60.0001403060998	60.0001403060998	-27.46394871055125	-23.297529274355472	27.521516536955932	16.419330689763235				
	48	29	0.00574	0.04283	0.06573	463.99999999999994	463.99999999999994	463.99999999999994	0	0	1	-60.0001403060998	60.0001403060998	5.914614682828756	-16.04565529183834	-5.904587257272101	8.925450598416743				
	613	29	0.00157	0.06775	0.0	160.0	160.0	160.0	1.0016	0.0	1	-60.0001403060998	60.0001403060998	-58.54715688313288	44.75591784490939	58.62089613029177	-41.57385797547312				
	46	30	0.00545	0.04021	0.06699	463.99999999999994	463.99999999999994	463.99999999999994	0	0	1	-60.0001403060998	60.0001403060998	-27.237456569672364	-23.08262966945	27.293972031723502	16.196960278194457				
	49	30	0.00707	0.04541	0.06931	362.0	362.0	362.0	0	0	1	-60.0001403060998	60.0001403060998	5.25838346552576	-15.436152523535766	-5.2477678665584655	7.91790026920258				
	32	31	0.0	0.0001	0.0	1593.0	1593.0	1593.0	0	0	1	-60.0001403060998	60.0001403060998	-644.3682654176301	-128.65031414723614	644.3682654176301	129.07803520530607				
	39	31	0.00176	0.02144	0.57344	1385.0	1385.0	1385.0	0	0	1	-60.0001403060998	60.0001403060998	101.27859039778177	-19.493323423404775	-101.09945207592226	-36.432434523582735				
	36	32	0.00167	0.0189	0.54176	498.00000000000006	498.00000000000006	498.00000000000006	0	0	1	-60.0001403060998	60.0001403060998	-256.2639820620485	-77.48801784063838	257.4283926401678	36.8000226980001				
	615	33	0.00163	0.06946	0.0	160.0	160.0	160.0	1.0291	0.0	1	-60.0001403060998	60.0001403060998	-83.68583853253809	-13.587966705066426	83.7945724140093	18.22149762960048				
...